models/_new/IEEE14/PSSE_Files/IEEE14_Base_Case.raw
0,   100.00, 33, 0, 1, 50.00     / PSS(R)E-33.4    SAT, MAY 01 2021  17:54
 IEEE 14 BUS TEST CASE
 03/06/14 CONTO           100.0  1962 W
     1,'BUS1        ',  69.0000,3,   1,   1,   1,1.03000,   0.0000,1.10000,0.90000,1.10000,0.90000
     2,'BUS2        ',  69.0000,2,   1,   1,   1,1.01970,  -1.6034,1.10000,0.90000,1.10000,0.90000
     3,'BUS3        ',  69.0000,2,   1,   1,   1,1.00048,  -3.4435,1.10000,0.90000,1.10000,0.90000
     4,'BUS4        ',  69.0000,1,   1,   1,   1,0.99870,  -4.2820,1.10000,0.90000,1.10000,0.90000
     5,'BUS5        ',  69.0000,1,   1,   1,   1,1.00425,  -3.6844,1.10000,0.90000,1.10000,0.90000
     6,'BUS6        ', 138.0000,2,   2,   2,   2,0.99968,  -6.3314,1.10000,0.90000,1.10000,0.90000
     7,'BUS7        ', 138.0000,1,   2,   2,   2,1.00472,  -4.8207,1.10000,0.90000,1.10000,0.90000
     8,'BUS8        ',  69.0000,2,   2,   2,   2,1.02016,  -1.3723,1.10000,0.90000,1.10000,0.90000
     9,'BUS9        ', 138.0000,1,   2,   2,   2,1.00035,  -7.2994,1.10000,0.90000,1.10000,0.90000
    10,'BUS10       ', 138.0000,1,   2,   2,   2,0.99237,  -7.4593,1.10000,0.90000,1.10000,0.90000
    11,'BUS11       ', 138.0000,1,   2,   2,   2,0.99234,  -7.0564,1.10000,0.90000,1.10000,0.90000
    12,'BUS12       ', 138.0000,1,   2,   2,   2,0.98719,  -7.4136,1.10000,0.90000,1.10000,0.90000
    13,'BUS13       ', 138.0000,1,   2,   2,   2,0.98464,  -7.6870,1.10000,0.90000,1.10000,0.90000
    14,'BUS14       ', 138.0000,1,   2,   2,   2,0.98998,  -9.5712,1.10000,0.90000,1.10000,0.90000
0 / END OF BUS DATA, BEGIN LOAD DATA
     2,'1 ',1,   1,   1,    21.700,    12.700,     0.000,     0.000,     0.000,     0.000,   1,1,0
     3,'1 ',1,   1,   1,    50.000,    25.000,     0.000,     0.000,     0.000,     0.000,   1,1,0
     4,'1 ',1,   1,   1,    47.800,    10.000,     0.000,     0.000,     0.000,     0.000,   1,1,0
     5,'1 ',1,   1,   1,     7.600,     1.600,     0.000,     0.000,     0.000,     0.000,   1,1,0
     6,'1 ',1,   2,   2,    15.000,     7.500,     0.000,     0.000,     0.000,     0.000,   2,1,0
     9,'1 ',1,   2,   2,    29.500,    16.600,     0.000,     0.000,     0.000,     0.000,   2,1,0
    10,'1 ',1,   2,   2,     9.000,     5.800,     0.000,     0.000,     0.000,     0.000,   2,1,0
    11,'1 ',1,   2,   2,     3.500,     1.800,     0.000,     0.000,     0.000,     0.000,   2,1,0
    12,'1 ',1,   2,   2,     6.100,     1.600,     0.000,     0.000,     0.000,     0.000,   2,1,0
    13,'1 ',1,   2,   2,    13.500,     5.800,     0.000,     0.000,     0.000,     0.000,   2,1,0
    14,'1 ',1,   2,   2,    20.000,     7.000,     0.000,     0.000,     0.000,     0.000,   2,1,0
0 / END OF LOAD DATA, BEGIN FIXED SHUNT DATA
     9,'1 ',1,     0.000,    19.000
    14,'1 ',1,     0.000,    15.006
0 / END OF FIXED SHUNT DATA, BEGIN GENERATOR DATA
     1,'1 ',    81.455,     2.044,   100.000,   -50.000,1.03000,     0,   100.000, 0.00000E+0, 2.30000E-1, 0.00000E+0, 0.00000E+0,1.00000,1,  100.0,   200.000,    50.000,   1,1.0000
     2,'1 ',    40.000,    15.000,    15.000,   -40.000,1.03000,     0,   100.000, 0.00000E+0, 1.30000E-1, 0.00000E+0, 0.00000E+0,1.00000,1,  100.0,    50.000,    10.000,   1,1.0000
     3,'1 ',    40.000,    15.000,    15.000,   -10.000,1.01000,     0,   100.000, 0.00000E+0, 1.30000E-1, 0.00000E+0, 0.00000E+0,1.00000,1,  100.0,    50.000,    10.000,   1,1.0000
     6,'1 ',    30.000,    10.000,    10.000,    -6.000,1.03000,     0,   100.000, 0.00000E+0, 1.20000E-1, 0.00000E+0, 0.00000E+0,1.00000,1,  100.0,    50.000,    10.000,   1,1.0000
     8,'1 ',    35.000,    10.000,    10.000,    -6.000,1.03000,     0,   100.000, 0.00000E+0, 1.20000E-1, 0.00000E+0, 0.00000E+0,1.00000,1,  100.0,    50.000,    10.000,   1,1.0000
0 / END OF GENERATOR DATA, BEGIN BRANCH DATA
     1,     2,'1 ', 1.93800E-2, 5.91700E-2,   0.05280,  100.00,  100.00,    0.00,  0.00000,  0.00000,  0.00000,  0.00000,1,1,   0.00,   1,1.0000
     1,     5,'1 ', 5.40300E-2, 2.23040E-1,   0.04920,  100.00,  100.00,    0.00,  0.00000,  0.00000,  0.00000,  0.00000,1,1,   0.00,   1,1.0000
     2,     3,'1 ', 4.69900E-2, 1.97970E-1,   0.04380,  100.00,  100.00,    0.00,  0.00000,  0.00000,  0.00000,  0.00000,1,1,   0.00,   1,1.0000
     2,     4,'1 ', 5.81100E-2, 1.76320E-1,   0.03400,  100.00,  100.00,    0.00,  0.00000,  0.00000,  0.00000,  0.00000,1,1,   0.00,   1,1.0000
     2,     5,'1 ', 5.69500E-2, 1.73880E-1,   0.03460,  100.00,  100.00,    0.00,  0.00000,  0.00000,  0.00000,  0.00000,1,1,   0.00,   1,1.0000
     3,     4,'1 ', 6.70100E-2, 1.71030E-1,   0.01280,  100.00,  100.00,    0.00,  0.00000,  0.00000,  0.00000,  0.00000,1,1,   0.00,   1,1.0000
     4,     5,'1 ', 1.33500E-2, 4.21100E-2,   0.00000,  100.00,  100.00,    0.00,  0.00000,  0.00000,  0.00000,  0.00000,1,1,   0.00,   1,1.0000
     6,    11,'1 ', 9.49800E-2, 1.98900E-1,   0.00000,  100.00,  100.00,    0.00,  0.00000,  0.00000,  0.00000,  0.00000,1,1,   0.00,   1,1.0000
     6,    12,'1 ', 1.22910E-1, 2.55810E-1,   0.00000,  100.00,  100.00,    0.00,  0.00000,  0.00000,  0.00000,  0.00000,1,1,   0.00,   1,1.0000
     6,    13,'1 ', 6.61500E-2, 1.30270E-1,   0.00000,  100.00,  100.00,    0.00,  0.00000,  0.00000,  0.00000,  0.00000,1,1,   0.00,   1,1.0000
     7,     9,'1 ', 0.00000E+0, 1.10010E-1,   0.00000,  100.00,  100.00,    0.00,  0.00000,  0.00000,  0.00000,  0.00000,1,1,   0.00,   1,1.0000
     9,    10,'1 ', 3.18100E-2, 8.45000E-2,   0.00000,  100.00,  100.00,    0.00,  0.00000,  0.00000,  0.00000,  0.00000,1,1,   0.00,   1,1.0000
     9,    14,'1 ', 1.27110E-1, 2.70380E-1,   0.00000,  100.00,  100.00,    0.00,  0.00000,  0.00000,  0.00000,  0.00000,1,1,   0.00,   1,1.0000
    10,    11,'1 ', 8.20500E-2, 1.92070E-1,   0.00000,  100.00,  100.00,    0.00,  0.00000,  0.00000,  0.00000,  0.00000,1,1,   0.00,   1,1.0000
    12,    13,'1 ', 2.20920E-1, 1.99880E-1,   0.00000,  100.00,  100.00,    0.00,  0.00000,  0.00000,  0.00000,  0.00000,1,1,   0.00,   1,1.0000
    13,    14,'1 ', 1.70930E-1, 3.48020E-1,   0.00000,  100.00,  100.00,    0.00,  0.00000,  0.00000,  0.00000,  0.00000,1,1,   0.00,   1,1.0000
0 / END OF BRANCH DATA, BEGIN TRANSFORMER DATA
     4,     7,     0,'1 ',1,1,1, 0.00000E+0, 0.00000E+0,2,'            ',1,   1,1.0000,   0,1.0000,   0,1.0000,   0,1.0000,'            '
 0.00000E+0, 2.09120E-1,   100.00
1.00000,   0.000,   0.000,    20.00,    20.00,     0.00,-1,      0, 1.10000, 0.90000, 1.10000, 0.90000,  32, 0, 0.00000, 0.00000,  0.000
1.00000,   0.000
     4,     9,     0,'1 ',1,1,1, 0.00000E+0, 0.00000E+0,2,'            ',1,   1,1.0000,   0,1.0000,   0,1.0000,   0,1.0000,'            '
 0.00000E+0, 5.56180E-1,   100.00
1.00000,   0.000,   0.000,    20.00,    20.00,     0.00,-1,      0, 1.10000, 0.90000, 1.10000, 0.90000,  32, 0, 0.00000, 0.00000,  0.000
1.00000,   0.000
     6,     5,     0,'1 ',1,1,1, 0.00000E+0, 0.00000E+0,1,'            ',1,   1,1.0000,   0,1.0000,   0,1.0000,   0,1.0000,'            '
 0.00000E+0, 2.52020E-1,   100.00
1.00000,   0.000,   0.000,    50.00,    50.00,     0.00,-1,      0, 1.10000, 0.90000, 1.10000, 0.90000,  32, 0, 0.00000, 0.00000,  0.000
1.00000,   0.000
     8,     7,     0,'1 ',1,1,1, 0.00000E+0, 0.00000E+0,1,'            ',1,   1,1.0000,   0,1.0000,   0,1.0000,   0,1.0000,'            '
 0.00000E+0, 1.76150E-1,   100.00
1.00000,   0.000,   0.000,    50.00,    50.00,     0.00,-1,      0, 1.10000, 0.90000, 1.10000, 0.90000,  32, 0, 0.00000, 0.00000,  0.000
1.00000,   0.000
0 / END OF TRANSFORMER DATA, BEGIN AREA DATA
   1,     1,     0.000,   999.990,'AREA1       '
   2,     0,     0.000,    10.000,'AREA2       '
0 / END OF AREA DATA, BEGIN TWO-TERMINAL DC DATA
0 / END OF TWO-TERMINAL DC DATA, BEGIN VSC DC LINE DATA
0 / END OF VSC DC LINE DATA, BEGIN IMPEDANCE CORRECTION DATA
0 / END OF IMPEDANCE CORRECTION DATA, BEGIN MULTI-TERMINAL DC DATA
0 / END OF MULTI-TERMINAL DC DATA, BEGIN MULTI-SECTION LINE DATA
0 / END OF MULTI-SECTION LINE DATA, BEGIN ZONE DATA
   1,'ZONE1       '
   2,'ZONE2       '
0 / END OF ZONE DATA, BEGIN INTER-AREA TRANSFER DATA
0 / END OF INTER-AREA TRANSFER DATA, BEGIN OWNER DATA
   1,'OWNER1      '
   2,'OWNER2      '
0 / END OF OWNER DATA, BEGIN FACTS DEVICE DATA
0 / END OF FACTS DEVICE DATA, BEGIN SWITCHED SHUNT DATA
0 / END OF SWITCHED SHUNT DATA, BEGIN GNE DATA
0 / END OF GNE DATA, BEGIN INDUCTION MACHINE DATA
0 / END OF INDUCTION MACHINE DATA
Q
